18

C             -0.000006   -0.713637    0.000000
C              0.000008    0.713640   -0.000003
C             -1.239530    1.396638   -0.000004
C              1.239542    1.396633   -0.000002
C              1.239526   -1.396636    0.000000
C             -1.239544   -1.396636    0.000001
C             -2.422637    0.705627    0.000001
C              2.422650    0.705620    0.000002
C              2.422638   -0.705628   -0.000000
C             -2.422649   -0.705621    0.000004
H             -1.237052    2.479957    0.000001
H              1.237044    2.479953    0.000004
H              1.237058   -2.479955   -0.000010
H             -1.237039   -2.479954   -0.000007
H             -3.363725    1.240304    0.000000
H              3.363745    1.240281    0.000016
H              3.363726   -1.240305   -0.000002
H             -3.363743   -1.240286   -0.000000
